
     RDKit          2D

 21 22  0  0  0  0  0  0  0  0999 V2000
    1.6551   -1.7493    0.0000 S   0  0  0  0  0  0  0  0  0  0  0  0
    1.2426   -2.4637    0.0000 O   0  0  0  0  0  0  0  0  0  0  0  0
    2.0676   -1.0348    0.0000 O   0  0  0  0  0  0  0  0  0  0  0  0
   -1.2028   -2.5743    0.0000 O   0  0  0  0  0  0  0  0  0  0  0  0
   -3.3462   -0.5118    0.0000 O   0  0  0  0  0  0  0  0  0  0  0  0
    0.9407   -1.3368    0.0000 N   0  0  0  0  0  0  0  0  0  0  0  0
   -1.9172   -1.3368    0.0000 N   0  0  0  0  0  0  0  0  0  0  0  0
   -0.4883   -1.3368    0.0000 C   0  0  0  0  0  0  0  0  0  0  0  0
   -1.2028   -1.7493    0.0000 C   0  0  0  0  0  0  0  0  0  0  0  0
    0.2262   -1.7493    0.0000 C   0  0  0  0  0  0  0  0  0  0  0  0
    0.9407   -0.5118    0.0000 C   0  0  0  0  0  0  0  0  0  0  0  0
   -0.4883   -0.5118    0.0000 C   0  0  0  0  0  0  0  0  0  0  0  0
    2.3696   -2.1618    0.0000 C   0  0  0  0  0  0  0  0  0  0  0  0
    0.2262   -0.0993    0.0000 C   0  0  0  0  0  0  0  0  0  0  0  0
   -1.9172   -0.5118    0.0000 C   0  0  0  0  0  0  0  0  0  0  0  0
   -2.6317   -1.7493    0.0000 C   0  0  0  0  0  0  0  0  0  0  0  0
    3.0841   -1.7493    0.0000 C   0  0  0  0  0  0  0  0  0  0  0  0
   -2.6317   -0.0993    0.0000 C   0  0  0  0  0  0  0  0  0  0  0  0
   -3.3462   -1.3368    0.0000 C   0  0  0  0  0  0  0  0  0  0  0  0
    3.7985   -2.1618    0.0000 C   0  0  0  0  0  0  0  0  0  0  0  0
    4.5130   -1.7493    0.0000 C   0  0  0  0  0  0  0  0  0  0  0  0
  1  2  2  0
  1  3  2  0
  1  6  1  0
  1 13  1  0
  4  9  2  0
  5 18  1  0
  5 19  1  0
  6 10  1  0
  6 11  1  0
  7  9  1  0
  7 15  1  0
  7 16  1  0
  8  9  1  0
  8 10  1  0
  8 12  1  0
 11 14  1  0
 12 14  1  0
 13 17  1  0
 15 18  1  0
 16 19  1  0
 17 20  1  0
 20 21  1  0
M  END

> <chembl_id>
CHEMBL1509176

> <chembl_pref_name>
None