
     RDKit          2D

 23 25  0  0  0  0  0  0  0  0999 V2000
    0.9036   -2.0208    0.0000 O   0  0  0  0  0  0  0  0  0  0  0  0
   -2.0865    2.0148    0.0000 N   0  0  0  0  0  0  0  0  0  0  0  0
   -3.1665    1.2301    0.0000 N   0  0  0  0  0  0  0  0  0  0  0  0
   -3.4214    2.0148    0.0000 N   0  0  0  0  0  0  0  0  0  0  0  0
   -3.4685    3.7372    0.0000 N   0  0  0  0  0  0  0  0  0  0  0  0
   -4.2221    3.4016    0.0000 N   0  0  0  0  0  0  0  0  0  0  0  0
   -4.3617    4.7292    0.0000 N   0  0  0  0  0  0  0  0  0  0  0  0
   -2.5277   -0.9446    0.0000 N   0  0  0  0  0  0  0  0  0  0  0  0
   -2.3415    1.2301    0.0000 C   0  0  0  0  0  0  0  0  0  0  0  0
   -2.7540    2.4997    0.0000 C   0  0  0  0  0  0  0  0  0  0  0  0
   -1.8566    0.5627    0.0000 C   0  0  0  0  0  0  0  0  0  0  0  0
   -2.7540    3.3247    0.0000 C   0  0  0  0  0  0  0  0  0  0  0  0
   -1.0361    0.6489    0.0000 C   0  0  0  0  0  0  0  0  0  0  0  0
   -0.5512   -0.0185    0.0000 C   0  0  0  0  0  0  0  0  0  0  0  0
   -2.1921   -0.1910    0.0000 C   0  0  0  0  0  0  0  0  0  0  0  0
   -3.5547    4.5577    0.0000 C   0  0  0  0  0  0  0  0  0  0  0  0
    0.2693    0.0677    0.0000 C   0  0  0  0  0  0  0  0  0  0  0  0
   -0.8867   -0.7722    0.0000 C   0  0  0  0  0  0  0  0  0  0  0  0
    0.4187   -1.3534    0.0000 C   0  0  0  0  0  0  0  0  0  0  0  0
   -4.7742    4.0147    0.0000 C   0  0  0  0  0  0  0  0  0  0  0  0
    0.7542   -0.5997    0.0000 C   0  0  0  0  0  0  0  0  0  0  0  0
   -0.4018   -1.4396    0.0000 C   0  0  0  0  0  0  0  0  0  0  0  0
    1.7241   -1.9346    0.0000 C   0  0  0  0  0  0  0  0  0  0  0  0
  1 19  1  0
  1 23  1  0
  2  9  1  0
  2 10  2  0
  3  4  1  0
  3  9  2  0
  4 10  1  0
  5  6  1  0
  5 12  1  0
  5 16  1  0
  6 20  2  0
  7 16  2  0
  7 20  1  0
  8 15  3  0
  9 11  1  0
 10 12  1  0
 11 13  2  0
 11 15  1  0
 13 14  1  0
 14 17  2  0
 14 18  1  0
 17 21  1  0
 18 22  2  0
 19 21  2  0
 19 22  1  0
M  END

> <chembl_id>
CHEMBL1608947

> <chembl_pref_name>
None