    RDKit          2D

 24 25  0  0  1  0  0  0  0  0999 V2000
   11.3344   -3.8639    0.0000 C   0  0  0  0  0  0  0  0  0  0  0  0
   12.7610   -3.8635    0.0000 C   0  0  0  0  0  0  0  0  0  0  0  0
   12.0490   -3.4516    0.0000 N   0  0  0  0  0  0  0  0  0  0  0  0
   12.7610   -4.6888    0.0000 C   0  0  0  0  0  0  0  0  0  0  0  0
   11.3344   -4.6925    0.0000 C   0  0  0  0  0  0  0  0  0  0  0  0
   12.0509   -5.1006    0.0000 C   0  0  0  0  0  0  0  0  0  0  0  0
   13.4755   -3.4511    0.0000 C   0  0  0  0  0  0  0  0  0  0  0  0
   14.1899   -3.8635    0.0000 C   0  0  0  0  0  0  0  0  0  0  0  0
   14.9044   -3.4511    0.0000 C   0  0  0  0  0  0  0  0  0  0  0  0
   15.6189   -3.8635    0.0000 C   0  0  0  0  0  0  0  0  0  0  0  0
   16.3333   -3.4511    0.0000 C   0  0  0  0  0  0  0  0  0  0  0  0
   17.0478   -3.8635    0.0000 N   0  0  0  0  0  0  0  0  0  0  0  0
   17.7623   -3.4511    0.0000 C   0  0  0  0  0  0  0  0  0  0  0  0
   18.4768   -3.8635    0.0000 C   0  0  0  0  0  0  0  0  0  0  0  0
   10.6200   -3.4514    0.0000 Br  0  0  0  0  0  0  0  0  0  0  0  0
   15.6189   -4.6885    0.0000 C   0  0  0  0  0  0  0  0  0  0  0  0
   16.3333   -2.6261    0.0000 O   0  0  0  0  0  0  0  0  0  0  0  0
   15.6189   -5.5135    0.0000 N   0  0  0  0  0  0  0  0  0  0  0  0
   17.7623   -2.6261    0.0000 C   0  0  0  0  0  0  0  0  0  0  0  0
   19.9033   -3.8632    0.0000 C   0  0  0  0  0  0  0  0  0  0  0  0
   19.1914   -3.4512    0.0000 C   0  0  0  0  0  0  0  0  0  0  0  0
   19.9033   -4.6883    0.0000 C   0  0  0  0  0  0  0  0  0  0  0  0
   18.4768   -4.6920    0.0000 C   0  0  0  0  0  0  0  0  0  0  0  0
   19.1932   -5.1002    0.0000 C   0  0  0  0  0  0  0  0  0  0  0  0
  6  4  1  0
  5  6  2  0
  2  3  1  0
  1  5  1  0
  4  2  2  0
  3  1  2  0
  2  7  1  0
  7  8  2  0
  8  9  1  0
  9 10  2  0
 10 11  1  0
 11 12  1  0
 12 13  1  0
 13 14  1  0
  1 15  1  0
 10 16  1  0
 11 17  2  0
 16 18  3  0
 13 19  1  1
 24 22  1  0
 23 24  2  0
 20 21  1  0
 22 20  2  0
 21 14  2  0
 14 23  1  0
M  END


> <chembl_id>
CHEMBL4594434

> <chembl_pref_name>
MOL-4239